    8
scf done:   -79.234546
 C     0.000000     0.000000    -5.839720
 C     0.000000     0.000000    -4.310280
 H     1.027593     0.000000    -6.239768
 H    -1.027593     0.000000    -3.910232
 H     0.513796    -0.889921    -3.910232
 H     0.513796     0.889921    -3.910232
 H    -0.513796    -0.889921    -6.239768
 H    -0.513796     0.889921    -6.239768
