   17
scf done:  -196.346490
 C     2.549342    -0.178602     0.000637
 C     1.279266    -1.032561     0.000700
 C    -0.000587    -0.192484     0.000615
 C    -1.280429    -1.032579     0.000677
 H     1.276979    -1.696347     0.885812
 H     1.276995    -1.696502    -0.884294
 H     3.458732    -0.802129     0.000700
 H     2.585447     0.472019    -0.890193
 H     2.585432     0.472176     0.891352
 H    -0.000600     0.473012     0.886319
 H    -0.000584     0.472857    -0.885206
 C    -2.550517    -0.178638     0.000590
 H    -1.278133    -1.696520    -0.884318
 H    -1.278149    -1.696365     0.885788
 H    -3.459898    -0.802178     0.000636
 H    -2.586632     0.472139     0.891305
 H    -2.586615     0.471983    -0.890240
