   11
scf done:  -118.271905
 C    -5.479857     0.000000    -3.874845
 C    -5.517413     0.000000    -2.344828
 C    -4.049862     0.000000    -4.420258
 H    -6.020424    -0.884828    -4.257084
 H    -6.020424     0.884828    -4.257084
 H    -3.497333     0.890858    -4.074166
 H    -3.497333    -0.890858    -4.074166
 H    -4.034486     0.000000    -5.522958
 H    -6.551923     0.000000    -1.962765
 H    -5.006938    -0.890858    -1.939263
 H    -5.006938     0.890858    -1.939263
