%chk=Zp_p_react.14mei.chk
%mem=8GB
%nprocs=4
#p oniom(b3lyp/6-31+g(d):mndo) opt scf=tight int=grid=ultrafine iop(2/16=1)

no comment

0 1
 O     0.000000     0.000000     0.000000 H 
Al     0.000000     0.000000     1.725819 H
 O     1.557346     0.000000     2.454240 H  
Si     2.535050    -1.217505     2.934746 H  
 O     2.035228    -1.867549     4.382305 L H
Si     1.540787    -2.377441     5.819828 L
 O     0.023174    -1.868327     6.069797 L
Si    -1.567128    -1.586855     5.991433 L
 O    -1.858918    -0.094649     6.531166 L
Si    -1.255725     1.397009     6.536013 L
 O    -0.683895     1.651202     5.061161 L H
Si    -0.449628     2.362570     3.577471 H
 O     1.056937     3.071674     3.666541 L H
Si     2.596007     3.386095     4.033410 L
 O     3.215517     4.228040     2.784430 L
Si     3.502858     4.490151     1.209933 L
 O     4.495481     3.326664     0.679046 L
Si     5.444483     2.030928     0.896141 L
 O     4.935555     0.779086     0.017207 L H
Si     3.754039     0.334493    -1.044522 H
 O     4.179775     0.883985    -2.549766 L H
Si     4.626454     1.457573    -3.981794 L
 O     3.364418     2.281528    -4.577032 L
Si     1.951388     2.779984    -5.184359 L
 O     0.769365     1.870533    -4.578776 L H
Si     0.331246     0.415890    -3.945336 H
 O     0.716774     0.408432    -2.380694 H
Si     0.821607     1.008444    -0.889722 H
 O     2.403211     1.132000    -0.513669 H
 O     0.237865     2.532291    -0.752642 H
Si     0.933172     4.021276    -0.709924 H
 O    -0.253216     5.125955    -0.376854 L H
Si    -0.794331     6.317732     0.553190 L
 O    -0.966651     5.825142     2.081378 L
Si    -1.699921     5.231157     3.395227 L
 O    -3.291229     5.434671     3.209622 L
Si    -4.760138     5.906188     3.607035 L
 O    -5.783429     5.293217     2.528139 L
Si    -7.133926     5.281761     1.655570 L
 O    -6.793556     5.489390     0.106950 L
Si    -6.253758     6.367702    -1.116040 L
 O    -4.684152     6.662677    -0.934856 L
Si    -3.389741     7.583822    -0.695292 L
 O    -2.254750     6.690785    -0.021034 L
 O     2.104160     4.306698     0.424660 L H
 O     1.583313     4.430470    -2.177764 L H
Si     1.912794     5.300581    -3.486358 L
 O     1.703035     4.303357    -4.728601 L
 O     5.339829     1.663100     2.457385 L
Si     4.565119     0.943802     3.675739 L
 O     3.401659     1.983111     4.118774 L
 O     4.001041    -0.486308     3.191652 L H
 O     2.758136    -2.483097     1.890611 L H
Si     2.535654    -3.879642     1.126476 L
 O     2.636091    -3.643456    -0.466369 L
Si     3.395614    -2.816475    -1.615970 L
 O     3.654769    -1.307637    -1.110223 L H
 O     1.035279    -4.327933     1.505006 L
Si    -0.152357    -4.868275     2.433122 L
 O     0.575600    -5.538071     3.715135 L
Si     1.179398    -5.508002     5.206440 L
 O     1.456943    -3.992006     5.674559 L
 O    -1.184736    -3.808805     3.089526 L H
Si    -1.832453    -2.282686     2.928406 H
 O    -0.862761    -1.473687     1.936456 H
 O    -1.016648    -5.958282     1.621728 L
Si    -1.849230    -7.324820     1.697279 L
 O    -3.174243    -7.134077     0.806156 L
Si    -4.446952    -6.183178     0.585584 L
 O    -4.213921    -4.765572     1.318789 L
Si    -4.586293    -3.524410     2.282398 L
 O    -3.368194    -2.492749     2.345559 L H
 O    -1.997742    -1.635879     4.442113 L H
 O    -1.494074     3.651841     3.531881 L H
 O    -0.850154     1.408412     2.310520 H
 O    -7.841577     3.852111     1.847320 L
Si    -8.756021     2.953936     2.806367 L
 O    -8.470727     1.425746     2.413661 L
Si    -9.042975    -0.060876     2.227567 L
 O    -7.792030    -1.011921     1.901911 L
Si    -7.316982    -2.395282     1.223791 L
 O    -7.419940    -2.228001    -0.384187 L
Si    -7.526662    -3.111420    -1.729652 L
 O    -6.865704    -2.362301    -2.990874 L
Si    -6.676603    -2.035907    -4.555776 L
 O    -5.605787    -3.106176    -5.134282 L
Si    -4.838998    -4.530514    -4.948485 L
 O    -5.038240    -4.971185    -3.420045 L
Si    -5.726951    -5.633403    -2.131967 L
 O    -6.727367    -4.504762    -1.516230 L
 O    -5.802502    -2.719033     1.595500 L
 O     2.403131    -2.615564    -2.871887 L
Si     1.992869    -2.219643    -4.367016 L
 O     1.078972    -3.379441    -5.002602 L
Si     0.685131    -4.200562    -6.321807 L
 O    -0.914834    -4.354021    -6.337851 L
Si    -2.275565    -3.505109    -6.259783 L
 O    -1.964278    -2.020967    -5.709766 L
Si    -2.061926    -0.410001    -5.663869 L
 O    -3.596278    -0.014315    -5.389252 L
Si    -5.118980     0.312299    -5.731285 L
 O    -5.444376     1.875389    -5.516738 L
Si    -6.513989     3.048354    -5.751214 L
 O    -6.241147     4.179344    -4.648813 L
Si    -6.573970     5.638252    -4.075832 L
 O    -6.472295     5.548938    -2.481082 L
 O     3.386897    -2.054324    -5.173827 L
Si     4.644519    -1.230083    -5.746309 L
 O     4.809488     0.149990    -4.925765 L
 O     1.240265    -0.805775    -4.604238 L H
 O    -4.644972    -5.964658    -0.997376 L
 O    -6.089765    -0.548262    -4.762347 L
 O    -1.233764     0.122444    -4.390432 L H
 O    -3.291491    -4.267454    -5.272225 L
 H -1 -8.814919    -3.369158    -2.019028 L
 H -1  2.762550     4.084847     5.214089 L
 H -1 -1.119151    -8.314878     1.193561 L
 H -1 -2.256092    -7.516639     2.991414 L
 H -1 -5.551476    -6.746535     1.156161 L
 H -1 -6.428612    -6.734394    -2.506220 L
 H -1  1.036713    -3.441798    -7.407740 L
 H -1  1.249951    -5.402539    -6.273324 L
 H -1 -2.800988    -3.360393    -7.509643 L
 H -1 -5.393398    -5.464455    -5.763768 L
 H -1 -7.859360    -2.195671    -5.190583 L
 H -1  0.006200     7.421057     0.434238 L
 H -1 -3.702586     8.568782     0.200387 L
 H -1 -3.009689     8.118150    -1.896240 L
 H -1 -6.900054     7.568341    -1.155009 L
 H -1 -5.696392     6.570369    -4.546727 L
 H -1 -7.803852     2.575059    -5.644217 L
 H -1 -6.327632     3.615817    -6.980993 L
 H -1 -5.370346    -0.044024    -7.028170 L
 H -1 -1.671099     0.081882    -6.895486 L
 H -1 -8.124666    -3.422499     1.637906 L
 H -1 -9.627277    -0.434759     3.405278 L
 H -1 -9.974548    -0.098088     1.213185 L
 H -1 -10.064288     3.264377     2.552601 L
 H -1 -8.449127     3.198675     4.113879 L
 H -1 -7.934331     6.298696     2.094052 L
 H -1 -5.158447     5.504643     4.855478 L
 H -1 -4.759537     7.270756     3.514955 L
 H -1 -1.305567     5.842234     4.544413 L
 H -1 -2.253570     2.251583     6.872667 L
 H -1 -0.223859     1.407826     7.415346 L
 H -1 -7.860472     5.977560    -4.396051 L
 H -1 -4.988483    -3.991203     3.503317 L
 H -1 -2.295614    -2.447297     6.703369 L
 H -1  2.352502    -1.957097     6.839639 L
 H -1  2.342361    -6.201909     5.136203 L
 H -1  0.251319    -6.043244     6.043238 L
 H -1  3.523423    -4.765310     1.482226 L
 H -1  5.383925     0.666681     4.668807 L
 H -1  6.683702     2.276123     0.511112 L
 H -1  4.082080     5.719011     0.986329 L
 H -1  3.228360     5.627120    -3.469426 L
 H -1  1.072643     6.345728    -3.650606 L
 H -1  1.872802     2.687967    -6.494986 L
 H -1  5.749094     2.245357    -3.912496 L
 H -1  4.383196    -0.925615    -7.049204 L
 H -1  5.725403    -2.032333    -5.554694 L
 H -1  4.594018    -3.432741    -1.902827 L 
 C    -1.669943     0.342070    -0.578169 H
 C    -2.373172    -0.950274    -0.498864 H
 C    -2.445000    -1.772668    -1.781325 H
 C    -3.646868     1.757762    -1.751874 H
 C    -3.472550     2.336164    -0.540430 H
 C    -4.197059     1.960699     0.714237 H
 H    -1.221931     0.704102    -1.490989 H
 H    -1.648385     1.014143     0.267556 H
 H    -3.361618    -0.789903    -0.049522 H
 H    -1.817105    -1.500403     0.274874 H
 H    -3.001718    -1.257366    -2.571148 H
 H    -2.944293    -2.725450    -1.582160 H
 H    -1.437641    -2.001171    -2.149147 H
 H    -3.118759     2.106348    -2.634758 H
 H    -4.383007     0.973039    -1.900757 H
 H    -2.748566     3.146795    -0.452950 H
 H    -4.893307     1.133331     0.557200 H
 H    -4.761697     2.820743     1.086085 H
 H    -3.488870     1.693758     1.509838 H

--Link1--
%chk=Zp_p_react.14mei.chk
%mem=8GB
%nprocs=4
#p oniom(b3lyp/6-31+g(d):hf/6-31+g(d)) geom(allcheck) scf=tight int=grid=ultrafine iop(2/16=1)

no comment

0 1

