%chk=Zp_p_react.28aug.chk
%nproc=4
%mem=8GB
#p oniom(b3lyp/6-31+g(d):mndo) freq(noraman) scf=tight int=grid=ultrafine iop(2/16=1)

no comment

0 1
O		0.98329	-0.001177	-0.139868	H
Al		1.70059	0.529008	1.472013	H
O		3.410714	0.487956	1.486005	H
Si		4.611059	-0.296958	2.279444	H
O		4.493439	-0.201122	3.938588	L H
Si		4.540928	-0.227646	5.549369	L
O		3.167108	0.423414	6.094621	L
Si		1.592014	0.748369	6.262126	L
O		1.375317	2.345376	6.27585	L
Si		1.878789	3.680868	5.535806	L
O		2.022262	3.293675	3.982392	L H
Si		1.804405	3.44799	2.341817	H
O		3.259619	4.015895	1.759496	L H
Si		4.8113	4.382852	1.539199	L
O		5.009565	4.663085	-0.052889	L
Si		4.873339	4.297425	-1.624266	L
O		5.758466	2.97421	-1.913337	L
Si		6.78332	1.792828	-1.499709	L
O		6.032634	0.380173	-1.687677	L H
Si		4.656026	-0.40287	-2.126495	H
O		4.549726	-0.354794	-3.785337	L H
Si		4.703455	-0.495919	-5.390258	L
O		3.34065	0.121932	-6.00141	L
Si		1.78494	0.444333	-6.287316	L
O		0.945679	-0.08244	-5.018764	L H
Si		0.645123	-1.233305	-3.889803	H
O		1.339252	-0.753721	-2.496179	H
Si		1.794983	0.434322	-1.533247	H
O		3.395526	0.422739	-1.396089	H
O		1.277123	1.922245	-1.856601	H
Si		1.907247	3.307364	-2.509504	H
O		0.827058	4.527254	-2.292518	L H
Si		0.48776	6.000118	-1.739431	L
O		0.783181	6.093114	-0.1548	L
Si		0.428048	6.102721	1.427101	L
O		-1.154987	6.33142	1.588117	L
Si		-2.488085	6.981652	2.173635	L
O		-3.733677	6.084504	1.713927	L
Si		-5.263423	5.814119	1.302658	L
O		-5.359622	5.417064	-0.240177	L
Si		-5.206006	5.73729	-1.794205	L
O		-3.659324	5.978949	-2.164857	L
Si		-2.402223	6.854687	-2.634293	L
O		-1.080825	6.223469	-2.001615	L
O		3.340993	3.85218	-1.8908	L H
O		2.137442	3.074114	-4.12826	L H
Si		2.059378	3.396508	-5.701365	L
O		1.576836	2.033403	-6.399254	L
O		7.129272	2.011777	0.053889	L
Si		6.727716	1.867785	1.611325	L
O		5.680879	3.066344	1.904392	L
O		6.03053	0.440314	1.854229	L H
O		4.712913	-1.893652	1.871715	L H
Si		4.324007	-3.442055	1.696049	L
O		3.983933	-3.738195	0.147106	L
Si		4.367121	-3.5226	-1.395806	L
O		4.721183	-1.96907	-1.644108	L H
O		2.985614	-3.633616	2.569747	L
Si		2.122085	-3.72255	3.919737	L
O		3.198568	-3.913569	5.115508	L
Si		4.178378	-3.35188	6.263508	L
O		4.507531	-1.79898	5.967881	L
O		1.286685	-2.410517	4.354061	L H
Si		0.513027	-1.022415	3.861476	H
O		0.984435	-0.73709	2.344418	H
O		1.119357	-4.976529	3.839672	L
Si		0.395585	-6.163686	4.64029	L
O		-1.124492	-6.242404	4.125016	L
Si		-2.44215	-5.344392	3.916575	L
O		-2.03646	-3.78349	3.98762	L
Si		-2.255687	-2.256033	4.478461	L
O		-1.10746	-1.295927	3.933427	L H
O		0.871764	0.164524	4.950336	L H
O		0.754451	4.704088	2.128201	L H
O		1.144326	2.14436	1.606967	H
O		-5.842505	4.615706	2.19451	L
Si		-6.404905	4.189686	3.627934	L
O		-6.175001	2.614336	3.782129	L
Si		-6.69785	1.19983	4.315991	L
O		-5.531143	0.123382	4.090012	L
Si		-5.206763	-1.430746	3.833408	L
O		-5.777543	-1.842531	2.37889	L
Si		-6.166581	-3.14449	1.520053	L
O		-5.876046	-2.919872	-0.045524	L
Si		-6.157685	-3.250066	-1.592666	L
O		-5.242924	-4.535039	-1.986155	L
Si		-4.394604	-5.838586	-1.508909	L
O		-4.138954	-5.681647	0.064289	L
Si		-4.439983	-5.759698	1.637626	L
O		-5.286448	-4.420789	2.006226	L
O		-3.646525	-1.748376	3.863619	L
O		3.052131	-3.735495	-2.307939	L
Si		2.246052	-3.929667	-3.67995	L
O		1.240517	-5.17339	-3.559562	L
Si		0.536859	-6.397206	-4.32618	L
O		-0.996705	-6.442766	-3.854225	L
Si		-2.320782	-5.536308	-3.739341	L
O		-1.911287	-3.979984	-3.892155	L
Si		-2.107758	-2.469951	-4.431622	L
O		-3.517938	-1.926133	-3.904838	L
Si		-5.087533	-1.632016	-3.940052	L
O		-5.393215	-0.089565	-4.278102	L
Si		-6.55094	0.971788	-4.608549	L
O		-6.041354	2.411071	-4.131122	L
Si		-6.275929	3.993107	-4.067948	L
O		-5.749537	4.491563	-2.645028	L
O		3.367325	-4.172512	-4.821447	L
Si		4.376982	-3.660335	-5.965555	L
O		4.68281	-2.089014	-5.714725	L
O		1.416367	-2.6539	-4.241816	L H
O		-3.079682	-5.699854	2.483264	L
O		-5.741487	-1.995431	-2.510868	L
O		-0.972393	-1.516251	-3.802012	L H
O		-3.006451	-5.804611	-2.312876	L
H	-1	-7.472227	-3.453809	1.713915	L
H	-1	5.273436	5.442346	2.283524	L
H	-1	1.019708	-7.306957	4.368346	L
H	-1	0.37295	-5.831961	5.970902	L
H	-1	-3.325852	-5.601416	4.928557	L
H	-1	-5.15481	-6.896319	1.901894	L
H	-1	0.561033	-6.111791	-5.668497	L
H	-1	1.159964	-7.52069	-3.985299	L
H	-1	-3.162402	-5.843796	-4.76896	L
H	-1	-5.092	-6.990233	-1.742728	L
H	-1	-7.45857	-3.600418	-1.797102	L
H	-1	1.185462	6.926008	-2.476933	L
H	-1	-2.497716	8.125451	-2.126805	L
H	-1	-2.374246	6.888381	-4.006548	L
H	-1	-5.893111	6.887418	-2.108065	L
H	-1	-5.60156	4.631976	-5.070578	L
H	-1	-7.743228	0.648903	-3.995049	L
H	-1	-6.729407	1.028778	-5.964118	L
H	-1	-5.655262	-2.437705	-4.895114	L
H	-1	-2.066154	-2.493856	-5.807823	L
H	-1	-5.822672	-2.187889	4.800803	L
H	-1	-6.928633	1.326724	5.656595	L
H	-1	-7.867264	0.846254	3.674844	L
H	-1	-7.74588	4.464529	3.634732	L
H	-1	-5.769223	4.885951	4.617526	L
H	-1	-5.957314	6.978399	1.528654	L
H	-1	-2.508285	7.100471	3.541321	L
H	-1	-2.564839	8.215798	1.584759	L
H	-1	1.099762	7.066624	2.114345	L
H	-1	0.976188	4.659953	5.775617	L
H	-1	3.113129	3.957563	6.033071	L
H	-1	-7.616321	4.268436	-4.140016	L
H	-1	-2.278059	-2.211054	5.837145	L
H	-1	1.103093	0.245287	7.389472	L
H	-1	5.589594	0.471094	6.091717	L
H	-1	5.31423	-4.0939	6.164029	L
H	-1	3.539016	-3.484823	7.467097	L
H	-1	5.403249	-4.18921	2.06607	L
H	-1	7.803801	1.915125	2.377109	L
H	-1	7.863803	1.785972	-2.264644	L
H	-1	5.332489	5.308922	-2.434984	L
H	-1	3.317505	3.621854	-6.134264	L
H	-1	1.162174	4.349956	-5.990193	L
H	-1	1.333128	-0.142976	-7.366528	L
H	-1	5.776867	0.17233	-5.936647	L
H	-1	3.763166	-3.84794	-7.178465	L
H	-1	5.506417	-4.399598	-5.794033	L
H	-1	5.462987	-4.274516	-1.724662	L
C		-0.516559	-0.073744	-0.269586	H
C		-1.100082	-1.385009	0.23254	H
C		-0.376795	-2.662467	-0.196477	H
C		-3.862926	1.507001	0.02626	H
C		-2.977763	2.312654	0.623905	H
C		-2.481845	2.173757	2.035025	H
H		-0.732448	0.084153	-1.32554	H
H		-0.893874	0.783263	0.282314	H
H		-2.135729	-1.389276	-0.135575	H
H		-1.151603	-1.355055	1.318624	H
H		-0.321441	-2.769434	-1.28315	H
H		-0.904442	-3.537885	0.196842	H
H		0.640682	-2.679932	0.201848	H
H		-4.182745	1.671166	-0.999726	H
H		-4.308687	0.661456	0.54745	H
H		-2.565144	3.147665	0.055437	H
H		-2.891006	1.283119	2.521623	H
H		-2.761762	3.047848	2.638169	H
H		-1.386183	2.12183	2.066411	H


